<?xml version="1.0" encoding="UTF-8"?>

<!-- generated on 2024-09-24 11:01:14 by Eclipse SUMO netedit Version 1.20.0
<configuration xmlns:xsi="http://www.w3.org/2001/XMLSchema-instance" xsi:noNamespaceSchemaLocation="http://sumo.dlr.de/xsd/neteditConfiguration.xsd">

    <input>
        <sumo-net-file value="D:\Code\Sumo\stage2\net\single-stage2.net.xml"/>
    </input>

    <output>
        <output-file value="D:\Code\Sumo\stage2\net\single-stage2.net.xml"/>
    </output>

    <processing>
        <geometry.min-radius.fix.railways value="false"/>
        <geometry.max-grade.fix value="false"/>
        <offset.disable-normalization value="true"/>
        <lefthand value="0"/>
    </processing>

    <junctions>
        <no-turnarounds value="true"/>
        <junctions.corner-detail value="0"/>
        <junctions.limit-turn-speed value="-1.00"/>
        <rectangular-lane-cut value="0"/>
    </junctions>

    <pedestrian>
        <walkingareas value="0"/>
    </pedestrian>

</configuration>
-->

<net version="1.20" xmlns:xsi="http://www.w3.org/2001/XMLSchema-instance" xsi:noNamespaceSchemaLocation="http://sumo.dlr.de/xsd/net_file.xsd">

    <location netOffset="150.00,150.00" convBoundary="-0.07,0.00,2000.00,1000.00" origBoundary="-150.00,-150.00,150.00,150.00" projParameter="!"/>

    <type id="type1" priority="3" numLanes="6" speed="13.89"/>
    <type id="type2" priority="6" numLanes="6" speed="15.00"/>

    <edge id=":e_0" function="internal">
        <lane id=":e_0_0" index="0" speed="19.45" length="4.67" shape="2000.00,498.40 2001.20,499.20 2001.60,500.00 2001.20,500.80 2000.00,501.60"/>
    </edge>
    <edge id=":e_1_0" function="internal">
        <lane id=":e_1_0_0" index="0" speed="22.22" length="0.10" shape="1900.00,508.00 1900.00,508.00"/>
        <lane id=":e_1_0_1" index="1" speed="22.22" length="0.10" shape="1900.00,504.80 1900.00,504.80"/>
        <lane id=":e_1_0_2" index="2" speed="22.22" length="0.10" shape="1900.00,501.60 1900.00,501.60"/>
    </edge>
    <edge id=":e_2_0" function="internal">
        <lane id=":e_2_0_0" index="0" speed="22.22" length="0.10" shape="1200.00,508.00 1200.00,508.00"/>
        <lane id=":e_2_0_1" index="1" speed="22.22" length="0.10" shape="1200.00,504.80 1200.00,504.80"/>
        <lane id=":e_2_0_2" index="2" speed="22.22" length="0.10" shape="1200.00,501.60 1200.00,501.60"/>
    </edge>
    <edge id=":n_0" function="internal">
        <lane id=":n_0_0" index="0" speed="19.45" length="4.67" shape="1001.60,1000.00 1000.80,1001.20 1000.00,1001.60 999.20,1001.20 998.40,1000.00"/>
    </edge>
    <edge id=":n_2_0" function="internal">
        <lane id=":n_2_0_0" index="0" speed="22.22" length="0.10" shape="992.00,700.00 992.00,700.00"/>
        <lane id=":n_2_0_1" index="1" speed="22.22" length="0.10" shape="995.20,700.00 995.20,700.00"/>
        <lane id=":n_2_0_2" index="2" speed="22.22" length="0.10" shape="998.40,700.00 998.40,700.00"/>
    </edge>
    <edge id=":s_0" function="internal">
        <lane id=":s_0_0" index="0" speed="19.45" length="4.67" shape="998.40,0.00 999.20,-1.20 1000.00,-1.60 1000.80,-1.20 1001.60,0.00"/>
    </edge>
    <edge id=":s_2_0" function="internal">
        <lane id=":s_2_0_0" index="0" speed="22.22" length="0.10" shape="1008.00,300.00 1008.00,300.00"/>
        <lane id=":s_2_0_1" index="1" speed="22.22" length="0.10" shape="1004.80,300.00 1004.80,300.00"/>
        <lane id=":s_2_0_2" index="2" speed="22.22" length="0.10" shape="1001.60,300.00 1001.60,300.00"/>
    </edge>
    <edge id=":t_0" function="internal">
        <lane id=":t_0_0" index="0" speed="22.22" length="9.03" shape="992.00,513.60 991.65,511.15 990.60,509.40 988.85,508.35 986.40,508.00"/>
    </edge>
    <edge id=":t_1" function="internal">
        <lane id=":t_1_0" index="0" speed="19.45" length="27.20" shape="995.20,513.60 995.20,486.40"/>
    </edge>
    <edge id=":t_2" function="internal">
        <lane id=":t_2_0" index="0" speed="19.45" length="24.51" shape="998.40,513.60 999.35,506.95 1002.20,502.20 1006.95,499.35 1013.60,498.40"/>
    </edge>
    <edge id=":t_3" function="internal">
        <lane id=":t_3_0" index="0" speed="19.45" length="9.03" shape="1013.60,508.00 1011.15,508.35 1009.40,509.40 1008.35,511.15 1008.00,513.60"/>
    </edge>
    <edge id=":t_4" function="internal">
        <lane id=":t_4_0" index="0" speed="22.22" length="27.20" shape="1013.60,504.80 986.40,504.80"/>
    </edge>
    <edge id=":t_5" function="internal">
        <lane id=":t_5_0" index="0" speed="19.45" length="24.51" shape="1013.60,501.60 1006.95,500.65 1002.20,497.80 999.35,493.05 998.40,486.40"/>
    </edge>
    <edge id=":t_6" function="internal">
        <lane id=":t_6_0" index="0" speed="19.45" length="9.03" shape="1008.00,486.40 1008.35,488.85 1009.40,490.60 1011.15,491.65 1013.60,492.00"/>
    </edge>
    <edge id=":t_7" function="internal">
        <lane id=":t_7_0" index="0" speed="19.45" length="27.20" shape="1004.80,486.40 1004.80,513.60"/>
    </edge>
    <edge id=":t_8" function="internal">
        <lane id=":t_8_0" index="0" speed="22.22" length="24.51" shape="1001.60,486.40 1000.65,493.05 997.80,497.80 993.05,500.65 986.40,501.60"/>
    </edge>
    <edge id=":t_9" function="internal">
        <lane id=":t_9_0" index="0" speed="19.45" length="9.03" shape="986.40,492.00 988.85,491.65 990.60,490.60 991.65,488.85 992.00,486.40"/>
    </edge>
    <edge id=":t_10" function="internal">
        <lane id=":t_10_0" index="0" speed="19.45" length="27.20" shape="986.40,495.20 1013.60,495.20"/>
    </edge>
    <edge id=":t_11" function="internal">
        <lane id=":t_11_0" index="0" speed="19.45" length="24.51" shape="986.40,498.40 993.05,499.35 997.80,502.20 1000.65,506.95 1001.60,513.60"/>
    </edge>
    <edge id=":w_0" function="internal">
        <lane id=":w_0_0" index="0" speed="22.22" length="4.67" shape="-0.07,501.60 -1.25,500.77 -1.63,499.97 -1.22,499.17 0.00,498.40"/>
    </edge>
    <edge id=":w_1_0" function="internal">
        <lane id=":w_1_0_0" index="0" speed="22.22" length="0.10" shape="100.00,492.00 100.00,492.00"/>
        <lane id=":w_1_0_1" index="1" speed="22.22" length="0.10" shape="100.00,495.20 100.00,495.20"/>
        <lane id=":w_1_0_2" index="2" speed="22.22" length="0.10" shape="100.00,498.40 100.00,498.40"/>
    </edge>
    <edge id=":w_3_0" function="internal">
        <lane id=":w_3_0_0" index="0" speed="22.22" length="0.10" shape="800.00,492.00 800.00,492.00"/>
        <lane id=":w_3_0_1" index="1" speed="22.22" length="0.10" shape="800.00,495.20 800.00,495.20"/>
        <lane id=":w_3_0_2" index="2" speed="22.22" length="0.10" shape="800.00,498.40 800.00,498.40"/>
    </edge>

    <edge id="e_t" from="e" to="e_1" priority="-1">
        <lane id="e_t_0" index="0" speed="22.22" length="100.00" shape="2000.00,508.00 1900.00,508.00"/>
        <lane id="e_t_1" index="1" speed="22.22" length="100.00" shape="2000.00,504.80 1900.00,504.80"/>
        <lane id="e_t_2" index="2" speed="22.22" length="100.00" shape="2000.00,501.60 1900.00,501.60"/>
    </edge>
    <edge id="e_t.100" from="e_1" to="e_2" priority="-1">
        <lane id="e_t.100_0" index="0" speed="22.22" length="700.00" shape="1900.00,508.00 1200.00,508.00"/>
        <lane id="e_t.100_1" index="1" speed="22.22" length="700.00" shape="1900.00,504.80 1200.00,504.80"/>
        <lane id="e_t.100_2" index="2" speed="22.22" length="700.00" shape="1900.00,501.60 1200.00,501.60"/>
    </edge>
    <edge id="e_t_nc" from="e_2" to="t" priority="-1">
        <lane id="e_t_nc_0" index="0" speed="22.22" length="186.40" shape="1200.00,508.00 1013.60,508.00"/>
        <lane id="e_t_nc_1" index="1" speed="22.22" length="186.40" shape="1200.00,504.80 1013.60,504.80"/>
        <lane id="e_t_nc_2" index="2" speed="22.22" length="186.40" shape="1200.00,501.60 1013.60,501.60"/>
    </edge>
    <edge id="n_t" from="n" to="n_2" priority="-1">
        <lane id="n_t_0" index="0" speed="22.22" length="300.00" shape="992.00,1000.00 992.00,700.00"/>
        <lane id="n_t_1" index="1" speed="22.22" length="300.00" shape="995.20,1000.00 995.20,700.00"/>
        <lane id="n_t_2" index="2" speed="22.22" length="300.00" shape="998.40,1000.00 998.40,700.00"/>
    </edge>
    <edge id="n_t_nc" from="n_2" to="t" priority="-1">
        <lane id="n_t_nc_0" index="0" speed="22.22" length="186.40" shape="992.00,700.00 992.00,513.60"/>
        <lane id="n_t_nc_1" index="1" speed="22.22" length="186.40" shape="995.20,700.00 995.20,513.60"/>
        <lane id="n_t_nc_2" index="2" speed="22.22" length="186.40" shape="998.40,700.00 998.40,513.60"/>
    </edge>
    <edge id="s_t" from="s" to="s_2" priority="-1">
        <lane id="s_t_0" index="0" speed="22.22" length="300.00" shape="1008.00,0.00 1008.00,300.00"/>
        <lane id="s_t_1" index="1" speed="22.22" length="300.00" shape="1004.80,0.00 1004.80,300.00"/>
        <lane id="s_t_2" index="2" speed="22.22" length="300.00" shape="1001.60,0.00 1001.60,300.00"/>
    </edge>
    <edge id="s_t_nc" from="s_2" to="t" priority="-1">
        <lane id="s_t_nc_0" index="0" speed="22.22" length="186.40" shape="1008.00,300.00 1008.00,486.40"/>
        <lane id="s_t_nc_1" index="1" speed="22.22" length="186.40" shape="1004.80,300.00 1004.80,486.40"/>
        <lane id="s_t_nc_2" index="2" speed="22.22" length="186.40" shape="1001.60,300.00 1001.60,486.40"/>
    </edge>
    <edge id="t_e" from="t" to="e" priority="-1">
        <lane id="t_e_0" index="0" speed="16.67" length="986.40" shape="1013.60,492.00 2000.00,492.00"/>
        <lane id="t_e_1" index="1" speed="16.67" length="986.40" shape="1013.60,495.20 2000.00,495.20"/>
        <lane id="t_e_2" index="2" speed="16.67" length="986.40" shape="1013.60,498.40 2000.00,498.40"/>
    </edge>
    <edge id="t_n" from="t" to="n" priority="-1">
        <lane id="t_n_0" index="0" speed="16.67" length="486.40" shape="1008.00,513.60 1008.00,1000.00"/>
        <lane id="t_n_1" index="1" speed="16.67" length="486.40" shape="1004.80,513.60 1004.80,1000.00"/>
        <lane id="t_n_2" index="2" speed="16.67" length="486.40" shape="1001.60,513.60 1001.60,1000.00"/>
    </edge>
    <edge id="t_s" from="t" to="s" priority="-1">
        <lane id="t_s_0" index="0" speed="16.67" length="486.40" shape="992.00,486.40 992.00,0.00"/>
        <lane id="t_s_1" index="1" speed="16.67" length="486.40" shape="995.20,486.40 995.20,0.00"/>
        <lane id="t_s_2" index="2" speed="16.67" length="486.40" shape="998.40,486.40 998.40,0.00"/>
    </edge>
    <edge id="t_w" from="t" to="w" priority="-1" spreadType="center" shape="1000.00,504.80 -0.07,504.80">
        <lane id="t_w_0" index="0" speed="22.22" length="986.47" shape="986.40,508.00 -0.07,508.00"/>
        <lane id="t_w_1" index="1" speed="22.22" length="986.47" shape="986.40,504.80 -0.07,504.80"/>
        <lane id="t_w_2" index="2" speed="22.22" length="986.47" shape="986.40,501.60 -0.07,501.60"/>
    </edge>
    <edge id="w_t" from="w" to="w_1" priority="-1">
        <lane id="w_t_0" index="0" speed="22.22" length="100.00" shape="0.00,492.00 100.00,492.00"/>
        <lane id="w_t_1" index="1" speed="22.22" length="100.00" shape="0.00,495.20 100.00,495.20"/>
        <lane id="w_t_2" index="2" speed="22.22" length="100.00" shape="0.00,498.40 100.00,498.40"/>
    </edge>
    <edge id="w_t.100" from="w_1" to="w_3" priority="-1">
        <lane id="w_t.100_0" index="0" speed="22.22" length="700.00" shape="100.00,492.00 800.00,492.00"/>
        <lane id="w_t.100_1" index="1" speed="22.22" length="700.00" shape="100.00,495.20 800.00,495.20"/>
        <lane id="w_t.100_2" index="2" speed="22.22" length="700.00" shape="100.00,498.40 800.00,498.40"/>
    </edge>
    <edge id="w_t_nc" from="w_3" to="t" priority="-1">
        <lane id="w_t_nc_0" index="0" speed="22.22" length="186.40" shape="800.00,492.00 986.40,492.00"/>
        <lane id="w_t_nc_1" index="1" speed="22.22" length="186.40" shape="800.00,495.20 986.40,495.20"/>
        <lane id="w_t_nc_2" index="2" speed="22.22" length="186.40" shape="800.00,498.40 986.40,498.40"/>
    </edge>

    <tlLogic id="t" type="static" programID="0" offset="0">
        <phase duration="27" state="OGrOrrOGrOrr"/>
        <phase duration="3"  state="OyrOrrOyrOrr"/>
        <phase duration="27" state="OrGOrrOrGOrr"/>
        <phase duration="3"  state="OryOurOryOur"/>
        <phase duration="37" state="OrrOGrOrrOGr"/>
        <phase duration="3"  state="OrrOyuOrrOyu"/>
        <phase duration="37" state="OrrOrGOrrOrG"/>
        <phase duration="3"  state="OrrOryOrrOry"/>
    </tlLogic>

    <junction id="e" type="priority" x="2000.00" y="500.00" incLanes="t_e_0 t_e_1 t_e_2" intLanes=":e_0_0" shape="2000.00,500.00 2000.00,490.40 2000.00,500.00">
        <request index="0" response="0" foes="0" cont="0"/>
    </junction>
    <junction id="e_1" type="priority" x="1900.00" y="500.00" incLanes="e_t_0 e_t_1 e_t_2" intLanes=":e_1_0_0 :e_1_0_1 :e_1_0_2" shape="1900.00,509.60 1900.00,500.00 1900.00,509.60">
        <request index="0" response="000" foes="000" cont="0"/>
        <request index="1" response="000" foes="000" cont="0"/>
        <request index="2" response="000" foes="000" cont="0"/>
    </junction>
    <junction id="e_2" type="priority" x="1200.00" y="500.00" incLanes="e_t.100_0 e_t.100_1 e_t.100_2" intLanes=":e_2_0_0 :e_2_0_1 :e_2_0_2" shape="1200.00,509.60 1200.00,500.00 1200.00,509.60">
        <request index="0" response="000" foes="000" cont="0"/>
        <request index="1" response="000" foes="000" cont="0"/>
        <request index="2" response="000" foes="000" cont="0"/>
    </junction>
    <junction id="n" type="priority" x="1000.00" y="1000.00" incLanes="t_n_0 t_n_1 t_n_2" intLanes=":n_0_0" shape="1000.00,1000.00 1009.60,1000.00 1000.00,1000.00">
        <request index="0" response="0" foes="0" cont="0"/>
    </junction>
    <junction id="n_2" type="priority" x="1000.00" y="700.00" incLanes="n_t_0 n_t_1 n_t_2" intLanes=":n_2_0_0 :n_2_0_1 :n_2_0_2" shape="990.40,700.00 1000.00,700.00 990.40,700.00">
        <request index="0" response="000" foes="000" cont="0"/>
        <request index="1" response="000" foes="000" cont="0"/>
        <request index="2" response="000" foes="000" cont="0"/>
    </junction>
    <junction id="s" type="priority" x="1000.00" y="0.00" incLanes="t_s_0 t_s_1 t_s_2" intLanes=":s_0_0" shape="1000.00,0.00 990.40,0.00 1000.00,0.00">
        <request index="0" response="0" foes="0" cont="0"/>
    </junction>
    <junction id="s_2" type="priority" x="1000.00" y="300.00" incLanes="s_t_0 s_t_1 s_t_2" intLanes=":s_2_0_0 :s_2_0_1 :s_2_0_2" shape="1000.00,300.00 1009.60,300.00 1000.00,300.00">
        <request index="0" response="000" foes="000" cont="0"/>
        <request index="1" response="000" foes="000" cont="0"/>
        <request index="2" response="000" foes="000" cont="0"/>
    </junction>
    <junction id="t" type="traffic_light" x="1000.00" y="500.00" incLanes="n_t_nc_0 n_t_nc_1 n_t_nc_2 e_t_nc_0 e_t_nc_1 e_t_nc_2 s_t_nc_0 s_t_nc_1 s_t_nc_2 w_t_nc_0 w_t_nc_1 w_t_nc_2" intLanes=":t_0_0 :t_1_0 :t_2_0 :t_3_0 :t_4_0 :t_5_0 :t_6_0 :t_7_0 :t_8_0 :t_9_0 :t_10_0 :t_11_0" shape="990.40,513.60 1009.60,513.60 1013.60,509.60 1013.60,490.40 1009.60,486.40 990.40,486.40 986.40,490.40 986.40,509.60">
        <request index="0"  response="000000000000" foes="000000000000" cont="0"/>
        <request index="1"  response="000000000000" foes="110100010000" cont="0"/>
        <request index="2"  response="000010000000" foes="100010110000" cont="0"/>
        <request index="3"  response="000000000000" foes="000000000000" cont="0"/>
        <request index="4"  response="000010000110" foes="100010000110" cont="0"/>
        <request index="5"  response="010110000100" foes="010110000100" cont="0"/>
        <request index="6"  response="000000000000" foes="000000000000" cont="0"/>
        <request index="7"  response="000000000000" foes="010000110100" cont="0"/>
        <request index="8"  response="000000000010" foes="110000100010" cont="0"/>
        <request index="9"  response="000000000000" foes="000000000000" cont="0"/>
        <request index="10" response="000110000010" foes="000110100010" cont="0"/>
        <request index="11" response="000100010110" foes="000100010110" cont="0"/>
    </junction>
    <junction id="w" type="priority" x="0.00" y="500.00" incLanes="t_w_0 t_w_1 t_w_2" intLanes=":w_0_0" shape="0.00,500.00 0.00,509.60 0.00,500.00">
        <request index="0" response="0" foes="0" cont="0"/>
    </junction>
    <junction id="w_1" type="priority" x="100.00" y="500.00" incLanes="w_t_0 w_t_1 w_t_2" intLanes=":w_1_0_0 :w_1_0_1 :w_1_0_2" shape="100.00,500.00 100.00,490.40 100.00,500.00">
        <request index="0" response="000" foes="000" cont="0"/>
        <request index="1" response="000" foes="000" cont="0"/>
        <request index="2" response="000" foes="000" cont="0"/>
    </junction>
    <junction id="w_3" type="priority" x="800.00" y="500.00" incLanes="w_t.100_0 w_t.100_1 w_t.100_2" intLanes=":w_3_0_0 :w_3_0_1 :w_3_0_2" shape="800.00,500.00 800.00,490.40 800.00,500.00">
        <request index="0" response="000" foes="000" cont="0"/>
        <request index="1" response="000" foes="000" cont="0"/>
        <request index="2" response="000" foes="000" cont="0"/>
    </junction>

    <connection from="e_t" to="e_t.100" fromLane="0" toLane="0" via=":e_1_0_0" dir="s" state="M"/>
    <connection from="e_t" to="e_t.100" fromLane="1" toLane="1" via=":e_1_0_1" dir="s" state="M"/>
    <connection from="e_t" to="e_t.100" fromLane="2" toLane="2" via=":e_1_0_2" dir="s" state="M"/>
    <connection from="e_t.100" to="e_t_nc" fromLane="0" toLane="0" via=":e_2_0_0" dir="s" state="M"/>
    <connection from="e_t.100" to="e_t_nc" fromLane="1" toLane="1" via=":e_2_0_1" dir="s" state="M"/>
    <connection from="e_t.100" to="e_t_nc" fromLane="2" toLane="2" via=":e_2_0_2" dir="s" state="M"/>
    <connection from="e_t_nc" to="t_n" fromLane="0" toLane="0" via=":t_3_0" tl="t" linkIndex="3" dir="r" state="O"/>
    <connection from="e_t_nc" to="t_w" fromLane="1" toLane="1" via=":t_4_0" tl="t" linkIndex="4" dir="s" state="o"/>
    <connection from="e_t_nc" to="t_s" fromLane="2" toLane="2" via=":t_5_0" tl="t" linkIndex="5" dir="l" state="o"/>
    <connection from="n_t" to="n_t_nc" fromLane="0" toLane="0" via=":n_2_0_0" dir="s" state="M"/>
    <connection from="n_t" to="n_t_nc" fromLane="1" toLane="1" via=":n_2_0_1" dir="s" state="M"/>
    <connection from="n_t" to="n_t_nc" fromLane="2" toLane="2" via=":n_2_0_2" dir="s" state="M"/>
    <connection from="n_t_nc" to="t_w" fromLane="0" toLane="0" via=":t_0_0" tl="t" linkIndex="0" dir="r" state="O"/>
    <connection from="n_t_nc" to="t_s" fromLane="1" toLane="1" via=":t_1_0" tl="t" linkIndex="1" dir="s" state="O"/>
    <connection from="n_t_nc" to="t_e" fromLane="2" toLane="2" via=":t_2_0" tl="t" linkIndex="2" dir="l" state="o"/>
    <connection from="s_t" to="s_t_nc" fromLane="0" toLane="0" via=":s_2_0_0" dir="s" state="M"/>
    <connection from="s_t" to="s_t_nc" fromLane="1" toLane="1" via=":s_2_0_1" dir="s" state="M"/>
    <connection from="s_t" to="s_t_nc" fromLane="2" toLane="2" via=":s_2_0_2" dir="s" state="M"/>
    <connection from="s_t_nc" to="t_e" fromLane="0" toLane="0" via=":t_6_0" tl="t" linkIndex="6" dir="r" state="O"/>
    <connection from="s_t_nc" to="t_n" fromLane="1" toLane="1" via=":t_7_0" tl="t" linkIndex="7" dir="s" state="O"/>
    <connection from="s_t_nc" to="t_w" fromLane="2" toLane="2" via=":t_8_0" tl="t" linkIndex="8" dir="l" state="o"/>
    <connection from="t_e" to="e_t" fromLane="2" toLane="2" via=":e_0_0" dir="t" state="M"/>
    <connection from="t_n" to="n_t" fromLane="2" toLane="2" via=":n_0_0" dir="t" state="M"/>
    <connection from="t_s" to="s_t" fromLane="2" toLane="2" via=":s_0_0" dir="t" state="M"/>
    <connection from="t_w" to="w_t" fromLane="2" toLane="2" via=":w_0_0" dir="t" state="M"/>
    <connection from="w_t" to="w_t.100" fromLane="0" toLane="0" via=":w_1_0_0" dir="s" state="M"/>
    <connection from="w_t" to="w_t.100" fromLane="1" toLane="1" via=":w_1_0_1" dir="s" state="M"/>
    <connection from="w_t" to="w_t.100" fromLane="2" toLane="2" via=":w_1_0_2" dir="s" state="M"/>
    <connection from="w_t.100" to="w_t_nc" fromLane="0" toLane="0" via=":w_3_0_0" dir="s" state="M"/>
    <connection from="w_t.100" to="w_t_nc" fromLane="1" toLane="1" via=":w_3_0_1" dir="s" state="M"/>
    <connection from="w_t.100" to="w_t_nc" fromLane="2" toLane="2" via=":w_3_0_2" dir="s" state="M"/>
    <connection from="w_t_nc" to="t_s" fromLane="0" toLane="0" via=":t_9_0" tl="t" linkIndex="9" dir="r" state="O"/>
    <connection from="w_t_nc" to="t_e" fromLane="1" toLane="1" via=":t_10_0" tl="t" linkIndex="10" dir="s" state="o"/>
    <connection from="w_t_nc" to="t_n" fromLane="2" toLane="2" via=":t_11_0" tl="t" linkIndex="11" dir="l" state="o"/>

    <connection from=":e_0" to="e_t" fromLane="0" toLane="2" dir="t" state="M"/>
    <connection from=":e_1_0" to="e_t.100" fromLane="0" toLane="0" dir="s" state="M"/>
    <connection from=":e_1_0" to="e_t.100" fromLane="1" toLane="1" dir="s" state="M"/>
    <connection from=":e_1_0" to="e_t.100" fromLane="2" toLane="2" dir="s" state="M"/>
    <connection from=":e_2_0" to="e_t_nc" fromLane="0" toLane="0" dir="s" state="M"/>
    <connection from=":e_2_0" to="e_t_nc" fromLane="1" toLane="1" dir="s" state="M"/>
    <connection from=":e_2_0" to="e_t_nc" fromLane="2" toLane="2" dir="s" state="M"/>
    <connection from=":n_0" to="n_t" fromLane="0" toLane="2" dir="t" state="M"/>
    <connection from=":n_2_0" to="n_t_nc" fromLane="0" toLane="0" dir="s" state="M"/>
    <connection from=":n_2_0" to="n_t_nc" fromLane="1" toLane="1" dir="s" state="M"/>
    <connection from=":n_2_0" to="n_t_nc" fromLane="2" toLane="2" dir="s" state="M"/>
    <connection from=":s_0" to="s_t" fromLane="0" toLane="2" dir="t" state="M"/>
    <connection from=":s_2_0" to="s_t_nc" fromLane="0" toLane="0" dir="s" state="M"/>
    <connection from=":s_2_0" to="s_t_nc" fromLane="1" toLane="1" dir="s" state="M"/>
    <connection from=":s_2_0" to="s_t_nc" fromLane="2" toLane="2" dir="s" state="M"/>
    <connection from=":t_0" to="t_w" fromLane="0" toLane="0" dir="r" state="M"/>
    <connection from=":t_1" to="t_s" fromLane="0" toLane="1" dir="s" state="M"/>
    <connection from=":t_2" to="t_e" fromLane="0" toLane="2" dir="l" state="M"/>
    <connection from=":t_3" to="t_n" fromLane="0" toLane="0" dir="r" state="M"/>
    <connection from=":t_4" to="t_w" fromLane="0" toLane="1" dir="s" state="M"/>
    <connection from=":t_5" to="t_s" fromLane="0" toLane="2" dir="l" state="M"/>
    <connection from=":t_6" to="t_e" fromLane="0" toLane="0" dir="r" state="M"/>
    <connection from=":t_7" to="t_n" fromLane="0" toLane="1" dir="s" state="M"/>
    <connection from=":t_8" to="t_w" fromLane="0" toLane="2" dir="l" state="M"/>
    <connection from=":t_9" to="t_s" fromLane="0" toLane="0" dir="r" state="M"/>
    <connection from=":t_10" to="t_e" fromLane="0" toLane="1" dir="s" state="M"/>
    <connection from=":t_11" to="t_n" fromLane="0" toLane="2" dir="l" state="M"/>
    <connection from=":w_0" to="w_t" fromLane="0" toLane="2" dir="t" state="M"/>
    <connection from=":w_1_0" to="w_t.100" fromLane="0" toLane="0" dir="s" state="M"/>
    <connection from=":w_1_0" to="w_t.100" fromLane="1" toLane="1" dir="s" state="M"/>
    <connection from=":w_1_0" to="w_t.100" fromLane="2" toLane="2" dir="s" state="M"/>
    <connection from=":w_3_0" to="w_t_nc" fromLane="0" toLane="0" dir="s" state="M"/>
    <connection from=":w_3_0" to="w_t_nc" fromLane="1" toLane="1" dir="s" state="M"/>
    <connection from=":w_3_0" to="w_t_nc" fromLane="2" toLane="2" dir="s" state="M"/>

</net>
